TTP-6171
  MOE2022           3D
TTP-6171
 55 58  0  0  0  0  0  0  0  0999 V2000
   22.5580  -15.6910   -4.4730 C   0  0  0  0  0  0  0  0  0  0  0  0
   21.2070  -15.2590   -4.6440 O   0  0  0  0  0  0  0  0  0  0  0  0
   20.2890  -16.2120   -4.9510 C   0  0  0  0  0  0  0  0  0  0  0  0
   20.6880  -17.3940   -5.5530 C   0  0  0  0  0  0  0  0  0  0  0  0
   19.7520  -18.3620   -5.8650 C   0  0  0  0  0  0  0  0  0  0  0  0
   18.4140  -18.1580   -5.5790 C   0  0  0  0  0  0  0  0  0  0  0  0
   18.0030  -16.9850   -4.9800 C   0  0  0  0  0  0  0  0  0  0  0  0
   18.9380  -16.0050   -4.6550 C   0  0  0  0  0  0  0  0  0  0  0  0
   18.5020  -14.7450   -4.0050 C   0  0  0  0  0  0  0  0  0  0  0  0
   18.9360  -13.5160   -4.4980 C   0  0  0  0  0  0  0  0  0  0  0  0
   18.5270  -12.3480   -3.8890 C   0  0  0  0  0  0  0  0  0  0  0  0
   17.6880  -12.3940   -2.7900 C   0  0  0  0  0  0  0  0  0  0  0  0
   17.2540  -13.6110   -2.2960 C   0  0  0  0  0  0  0  0  0  0  0  0
   17.6520  -14.7860   -2.9010 C   0  0  0  0  0  0  0  0  0  0  0  0
   17.2540  -11.1370   -2.1410 N   0  3  0  0  0  0  0  0  0  0  0  0
   17.4270  -10.0700   -2.7020 O   0  5  0  0  0  0  0  0  0  0  0  0
   16.7230  -11.1690   -1.0450 O   0  0  0  0  0  0  0  0  0  0  0  0
   17.4020  -19.2200   -5.9240 C   0  0  0  0  0  0  0  0  0  0  0  0
   17.8840  -20.5740   -5.3970 C   0  0  0  0  0  0  0  0  0  0  0  0
   18.0970  -21.4880   -6.5210 N   0  0  0  0  0  0  0  0  0  0  0  0
   17.1400  -22.3760   -6.8590 C   0  0  0  0  0  0  0  0  0  0  0  0
   16.1010  -22.4170   -6.2300 O   0  0  0  0  0  0  0  0  0  0  0  0
   17.3550  -23.2960   -7.9920 C   0  0  0  0  0  0  0  0  0  0  0  0
   18.5590  -23.2760   -8.6770 C   0  0  0  0  0  0  0  0  0  0  0  0
   18.7570  -24.1540   -9.7530 C   0  0  0  0  0  0  0  0  0  0  0  0
   19.9670  -24.1600  -10.4700 C   0  0  0  0  0  0  0  0  0  0  0  0
   20.1290  -25.0240  -11.5090 C   0  0  0  0  0  0  0  0  0  0  0  0
   19.1140  -25.9050  -11.8750 C   0  0  0  0  0  0  0  0  0  0  0  0
   17.9290  -25.9270  -11.2050 C   0  0  0  0  0  0  0  0  0  0  0  0
   17.7230  -25.0510  -10.1260 C   0  0  0  0  0  0  0  0  0  0  0  0
   16.5110  -25.0520   -9.4140 C   0  0  0  0  0  0  0  0  0  0  0  0
   16.3350  -24.1960   -8.3670 C   0  0  0  0  0  0  0  0  0  0  0  0
   15.1640  -24.2080   -7.6810 O   0  0  0  0  0  0  0  0  0  0  0  0
   23.1860  -14.8340   -4.2320 H   0  0  0  0  0  0  0  0  0  0  0  0
   22.6070  -16.4170   -3.6610 H   0  0  0  0  0  0  0  0  0  0  0  0
   22.9120  -16.1530   -5.3950 H   0  0  0  0  0  0  0  0  0  0  0  0
   21.7310  -17.5590   -5.7790 H   0  0  0  0  0  0  0  0  0  0  0  0
   20.0680  -19.2820   -6.3350 H   0  0  0  0  0  0  0  0  0  0  0  0
   16.9570  -16.8290   -4.7580 H   0  0  0  0  0  0  0  0  0  0  0  0
   19.5920  -13.4790   -5.3560 H   0  0  0  0  0  0  0  0  0  0  0  0
   18.8630  -11.3950   -4.2710 H   0  0  0  0  0  0  0  0  0  0  0  0
   16.6000  -13.6410   -1.4370 H   0  0  0  0  0  0  0  0  0  0  0  0
   17.3080  -15.7350   -2.5170 H   0  0  0  0  0  0  0  0  0  0  0  0
   16.4450  -18.9720   -5.4660 H   0  0  0  0  0  0  0  0  0  0  0  0
   17.2850  -19.2730   -7.0060 H   0  0  0  0  0  0  0  0  0  0  0  0
   18.8200  -20.4400   -4.8550 H   0  0  0  0  0  0  0  0  0  0  0  0
   17.1320  -20.9910   -4.7270 H   0  0  0  0  0  0  0  0  0  0  0  0
   18.9260  -21.4550   -7.0230 H   0  0  0  0  0  0  0  0  0  0  0  0
   19.3390  -22.5890   -8.3850 H   0  0  0  0  0  0  0  0  0  0  0  0
   20.7630  -23.4830  -10.1980 H   0  0  0  0  0  0  0  0  0  0  0  0
   21.0590  -25.0260  -12.0580 H   0  0  0  0  0  0  0  0  0  0  0  0
   19.2680  -26.5800  -12.7040 H   0  0  0  0  0  0  0  0  0  0  0  0
   17.1510  -26.6150  -11.5010 H   0  0  0  0  0  0  0  0  0  0  0  0
   15.7210  -25.7320   -9.6940 H   0  0  0  0  0  0  0  0  0  0  0  0
   14.5140  -24.8380   -8.0220 H   0  0  0  0  0  0  0  0  0  0  0  0
  1  2  1  0  0  0  0
  1 34  1  0  0  0  0
  1 35  1  0  0  0  0
  1 36  1  0  0  0  0
  2  3  1  0  0  0  0
  3  4  1  0  0  0  0
  3  8  2  0  0  0  0
  4  5  2  0  0  0  0
  4 37  1  0  0  0  0
  5  6  1  0  0  0  0
  5 38  1  0  0  0  0
  6  7  2  0  0  0  0
  6 18  1  0  0  0  0
  7  8  1  0  0  0  0
  7 39  1  0  0  0  0
  8  9  1  0  0  0  0
  9 10  1  0  0  0  0
  9 14  2  0  0  0  0
 10 11  2  0  0  0  0
 10 40  1  0  0  0  0
 11 12  1  0  0  0  0
 11 41  1  0  0  0  0
 12 13  2  0  0  0  0
 12 15  1  0  0  0  0
 13 14  1  0  0  0  0
 13 42  1  0  0  0  0
 14 43  1  0  0  0  0
 15 16  1  0  0  0  0
 15 17  2  0  0  0  0
 18 19  1  0  0  0  0
 18 44  1  0  0  0  0
 18 45  1  0  0  0  0
 19 20  1  0  0  0  0
 19 46  1  0  0  0  0
 19 47  1  0  0  0  0
 20 21  1  0  0  0  0
 20 48  1  0  0  0  0
 21 22  2  0  0  0  0
 21 23  1  0  0  0  0
 23 24  1  0  0  0  0
 23 32  2  0  0  0  0
 24 25  2  0  0  0  0
 24 49  1  0  0  0  0
 25 26  1  0  0  0  0
 25 30  1  0  0  0  0
 26 27  2  0  0  0  0
 26 50  1  0  0  0  0
 27 28  1  0  0  0  0
 27 51  1  0  0  0  0
 28 29  2  0  0  0  0
 28 52  1  0  0  0  0
 29 30  1  0  0  0  0
 29 53  1  0  0  0  0
 30 31  2  0  0  0  0
 31 32  1  0  0  0  0
 31 54  1  0  0  0  0
 32 33  1  0  0  0  0
 33 55  1  0  0  0  0
M  CHG  1  15   1
M  CHG  1  16  -1
M  END
>  <Name>
TTP-6171

$$$$
DB01748
  MOE2022           3D
DB01748
 34 35  0  0  0  0  0  0  0  0999 V2000
   20.2380  -17.5040   -5.5140 C   0  0  0  0  0  0  0  0  0  0  0  0
   20.7450  -18.8010   -5.4730 C   0  0  0  0  0  0  0  0  0  0  0  0
   19.8760  -19.8950   -5.5020 C   0  0  0  0  0  0  0  0  0  0  0  0
   18.4890  -19.7030   -5.5810 C   0  0  0  0  0  0  0  0  0  0  0  0
   17.9910  -18.3920   -5.6110 C   0  0  0  0  0  0  0  0  0  0  0  0
   18.8620  -17.2990   -5.5830 C   0  0  0  0  0  0  0  0  0  0  0  0
   17.5530  -20.8870   -5.5850 C   0  0  0  0  0  0  0  0  0  0  0  0
   17.8040  -21.7340   -6.7290 N   0  0  0  0  0  0  0  0  0  0  0  0
   16.9070  -22.6940   -7.1490 C   0  0  0  0  0  0  0  0  0  0  0  0
   15.8300  -22.9040   -6.6060 O   0  0  0  0  0  0  0  0  0  0  0  0
   17.3500  -23.5270   -8.3070 C   0  0  0  0  0  0  0  0  0  0  0  0
   16.6900  -24.7360   -8.5800 C   0  0  0  0  0  0  0  0  0  0  0  0
   17.1520  -25.5750   -9.6010 C   0  0  0  0  0  0  0  0  0  0  0  0
   18.2740  -25.2000  -10.3460 C   0  0  0  0  0  0  0  0  0  0  0  0
   18.9120  -23.9810  -10.1070 C   0  0  0  0  0  0  0  0  0  0  0  0
   18.4330  -23.1350   -9.1060 C   0  0  0  0  0  0  0  0  0  0  0  0
   18.8950  -26.2620  -11.6180 S   0  0  0  0  0  0  0  0  0  0  0  0
   18.5320  -25.7280  -12.9080 O   0  0  0  0  0  0  0  0  0  0  0  0
   20.2530  -26.6400  -11.2850 O   0  0  0  0  0  0  0  0  0  0  0  0
   17.9570  -27.6380  -11.4200 N   0  0  0  0  0  0  0  0  0  0  0  0
   20.9160  -16.6540   -5.4940 H   0  0  0  0  0  0  0  0  0  0  0  0
   21.8190  -18.9620   -5.4210 H   0  0  0  0  0  0  0  0  0  0  0  0
   20.2900  -20.9010   -5.4680 H   0  0  0  0  0  0  0  0  0  0  0  0
   16.9180  -18.2130   -5.6640 H   0  0  0  0  0  0  0  0  0  0  0  0
   18.4670  -16.2860   -5.6180 H   0  0  0  0  0  0  0  0  0  0  0  0
   16.5080  -20.5570   -5.6270 H   0  0  0  0  0  0  0  0  0  0  0  0
   17.6670  -21.4730   -4.6650 H   0  0  0  0  0  0  0  0  0  0  0  0
   18.7120  -21.6580   -7.1640 H   0  0  0  0  0  0  0  0  0  0  0  0
   15.8260  -25.0330   -7.9860 H   0  0  0  0  0  0  0  0  0  0  0  0
   16.6410  -26.5150   -9.8050 H   0  0  0  0  0  0  0  0  0  0  0  0
   19.7790  -23.6820  -10.6920 H   0  0  0  0  0  0  0  0  0  0  0  0
   18.9090  -22.1680   -8.9700 H   0  0  0  0  0  0  0  0  0  0  0  0
   18.2640  -28.3590  -12.0740 H   0  0  0  0  0  0  0  0  0  0  0  0
   17.9710  -27.9310  -10.4440 H   0  0  0  0  0  0  0  0  0  0  0  0
  1  2  1  0  0  0  0
  1  6  2  0  0  0  0
  1 21  1  0  0  0  0
  2  3  2  0  0  0  0
  2 22  1  0  0  0  0
  3  4  1  0  0  0  0
  3 23  1  0  0  0  0
  4  5  2  0  0  0  0
  4  7  1  0  0  0  0
  5  6  1  0  0  0  0
  5 24  1  0  0  0  0
  6 25  1  0  0  0  0
  7  8  1  0  0  0  0
  7 26  1  0  0  0  0
  7 27  1  0  0  0  0
  8  9  1  0  0  0  0
  8 28  1  0  0  0  0
  9 10  2  0  0  0  0
  9 11  1  0  0  0  0
 11 12  1  0  0  0  0
 11 16  2  0  0  0  0
 12 13  2  0  0  0  0
 12 29  1  0  0  0  0
 13 14  1  0  0  0  0
 13 30  1  0  0  0  0
 14 15  2  0  0  0  0
 14 17  1  0  0  0  0
 15 16  1  0  0  0  0
 15 31  1  0  0  0  0
 16 32  1  0  0  0  0
 17 18  2  0  0  0  0
 17 19  2  0  0  0  0
 17 20  1  0  0  0  0
 20 33  1  0  0  0  0
 20 34  1  0  0  0  0
M  END
>  <Name>
DB01748

$$$$
DB02429
  MOE2022           3D
DB02429
 34 35  0  0  0  0  0  0  0  0999 V2000
   18.1550  -18.4100   -5.8780 C   0  0  0  0  0  0  0  0  0  0  0  0
   19.0870  -17.3680   -5.8740 C   0  0  0  0  0  0  0  0  0  0  0  0
   20.4180  -17.6380   -5.5840 C   0  0  0  0  0  0  0  0  0  0  0  0
   20.8360  -18.9310   -5.2950 C   0  0  0  0  0  0  0  0  0  0  0  0
   19.9060  -19.9760   -5.2990 C   0  0  0  0  0  0  0  0  0  0  0  0
   18.5520  -19.7260   -5.5850 C   0  0  0  0  0  0  0  0  0  0  0  0
   17.5490  -20.8560   -5.6110 C   0  0  0  0  0  0  0  0  0  0  0  0
   17.8520  -21.7870   -6.6740 N   0  0  0  0  0  0  0  0  0  0  0  0
   16.9420  -22.7180   -7.1270 C   0  0  0  0  0  0  0  0  0  0  0  0
   15.8140  -22.8570   -6.6690 O   0  0  0  0  0  0  0  0  0  0  0  0
   17.4040  -23.5560   -8.2720 C   0  0  0  0  0  0  0  0  0  0  0  0
   16.7610  -24.7640   -8.5830 C   0  0  0  0  0  0  0  0  0  0  0  0
   17.2300  -25.5640   -9.6280 C   0  0  0  0  0  0  0  0  0  0  0  0
   18.3340  -25.1440  -10.3710 C   0  0  0  0  0  0  0  0  0  0  0  0
   18.9590  -23.9220  -10.0980 C   0  0  0  0  0  0  0  0  0  0  0  0
   18.4900  -23.1260   -9.0480 C   0  0  0  0  0  0  0  0  0  0  0  0
   18.9540  -26.1730  -11.6700 S   0  0  0  0  0  0  0  0  0  0  0  0
   18.7030  -25.5440  -12.9430 O   0  0  0  0  0  0  0  0  0  0  0  0
   20.2560  -26.6700  -11.2830 O   0  0  0  0  0  0  0  0  0  0  0  0
   17.9090  -27.4880  -11.6070 N   0  0  0  0  0  0  0  0  0  0  0  0
   21.3100  -16.6390   -5.5840 F   0  0  0  0  0  0  0  0  0  0  0  0
   17.1140  -18.1860   -6.1010 H   0  0  0  0  0  0  0  0  0  0  0  0
   18.7830  -16.3490   -6.0920 H   0  0  0  0  0  0  0  0  0  0  0  0
   21.8810  -19.1180   -5.0670 H   0  0  0  0  0  0  0  0  0  0  0  0
   20.2430  -20.9850   -5.0720 H   0  0  0  0  0  0  0  0  0  0  0  0
   16.5440  -20.4610   -5.8000 H   0  0  0  0  0  0  0  0  0  0  0  0
   17.5160  -21.3720   -4.6450 H   0  0  0  0  0  0  0  0  0  0  0  0
   18.6370  -21.5570   -7.2670 H   0  0  0  0  0  0  0  0  0  0  0  0
   15.8820  -25.0880   -8.0310 H   0  0  0  0  0  0  0  0  0  0  0  0
   16.7270  -26.5020   -9.8520 H   0  0  0  0  0  0  0  0  0  0  0  0
   19.8090  -23.5920  -10.6920 H   0  0  0  0  0  0  0  0  0  0  0  0
   18.9780  -22.1780   -8.8300 H   0  0  0  0  0  0  0  0  0  0  0  0
   17.5050  -27.5590  -10.6730 H   0  0  0  0  0  0  0  0  0  0  0  0
   17.2160  -27.4140  -12.3510 H   0  0  0  0  0  0  0  0  0  0  0  0
  1  2  1  0  0  0  0
  1  6  2  0  0  0  0
  1 22  1  0  0  0  0
  2  3  2  0  0  0  0
  2 23  1  0  0  0  0
  3  4  1  0  0  0  0
  3 21  1  0  0  0  0
  4  5  2  0  0  0  0
  4 24  1  0  0  0  0
  5  6  1  0  0  0  0
  5 25  1  0  0  0  0
  6  7  1  0  0  0  0
  7  8  1  0  0  0  0
  7 26  1  0  0  0  0
  7 27  1  0  0  0  0
  8  9  1  0  0  0  0
  8 28  1  0  0  0  0
  9 10  2  0  0  0  0
  9 11  1  0  0  0  0
 11 12  1  0  0  0  0
 11 16  2  0  0  0  0
 12 13  2  0  0  0  0
 12 29  1  0  0  0  0
 13 14  1  0  0  0  0
 13 30  1  0  0  0  0
 14 15  2  0  0  0  0
 14 17  1  0  0  0  0
 15 16  1  0  0  0  0
 15 31  1  0  0  0  0
 16 32  1  0  0  0  0
 17 18  2  0  0  0  0
 17 19  2  0  0  0  0
 17 20  1  0  0  0  0
 20 33  1  0  0  0  0
 20 34  1  0  0  0  0
M  END
>  <Name>
DB02429

$$$$
DB04888
  MOE2022           3D
DB04888
 53 57  0  0  0  0  0  0  0  0999 V2000
   16.9960  -13.5690   -4.9980 C   0  0  0  0  0  0  0  0  0  0  0  0
   18.2520  -13.6730   -5.5840 C   0  0  0  0  0  0  0  0  0  0  0  0
   18.8660  -14.9250   -5.7210 C   0  0  0  0  0  0  0  0  0  0  0  0
   18.2400  -16.1050   -5.2760 C   0  0  0  0  0  0  0  0  0  0  0  0
   16.9690  -15.9630   -4.6830 C   0  0  0  0  0  0  0  0  0  0  0  0
   16.3540  -14.7140   -4.5450 C   0  0  0  0  0  0  0  0  0  0  0  0
   18.8810  -17.4400   -5.4240 C   0  0  0  0  0  0  0  0  0  0  0  0
   20.2570  -17.5780   -5.6770 C   0  0  0  0  0  0  0  0  0  0  0  0
   20.8460  -18.8350   -5.8500 C   0  0  0  0  0  0  0  0  0  0  0  0
   20.0730  -19.9900   -5.7670 C   0  0  0  0  0  0  0  0  0  0  0  0
   18.7020  -19.9020   -5.4980 C   0  0  0  0  0  0  0  0  0  0  0  0
   18.1250  -18.6280   -5.3350 C   0  0  0  0  0  0  0  0  0  0  0  0
   17.8530  -21.1410   -5.4100 C   0  0  0  0  0  0  0  0  0  0  0  0
   17.2490  -21.6110   -6.7180 N   0  3  0  0  0  0  0  0  0  0  0  0
   18.3500  -21.7100   -7.7910 C   0  0  0  0  0  0  0  0  0  0  0  0
   17.8520  -22.3480   -9.1110 C   0  0  0  0  0  0  0  0  0  0  0  0
   17.0740  -23.5850   -8.8770 N   0  0  0  0  0  0  0  0  0  0  0  0
   15.9410  -23.3710   -7.9560 C   0  0  0  0  0  0  0  0  0  0  0  0
   16.4730  -22.9200   -6.5840 C   0  0  0  0  0  0  0  0  0  0  0  0
   17.6800  -24.8450   -8.8500 C   0  0  0  0  0  0  0  0  0  0  0  0
   16.9540  -25.9900   -8.4440 C   0  0  0  0  0  0  0  0  0  0  0  0
   17.5210  -27.2820   -8.3640 C   0  0  0  0  0  0  0  0  0  0  0  0
   18.8460  -27.4970   -8.7190 C   0  0  0  0  0  0  0  0  0  0  0  0
   19.5460  -26.3950   -9.1410 C   0  0  0  0  0  0  0  0  0  0  0  0
   18.9940  -25.1200   -9.2160 C   0  0  0  0  0  0  0  0  0  0  0  0
   19.9500  -24.1960   -9.6250 O   0  0  0  0  0  0  0  0  0  0  0  0
   21.0980  -24.9740   -9.7830 C   0  0  0  0  0  0  0  0  0  0  0  0
   22.1880  -24.4940  -10.1010 O   0  0  0  0  0  0  0  0  0  0  0  0
   20.8570  -26.2840   -9.5100 N   0  0  0  0  0  0  0  0  0  0  0  0
   21.5560  -27.0060   -9.5360 H   0  0  0  0  0  0  0  0  0  0  0  0
   16.5160  -12.5980   -4.9000 H   0  0  0  0  0  0  0  0  0  0  0  0
   18.7580  -12.7780   -5.9390 H   0  0  0  0  0  0  0  0  0  0  0  0
   19.8510  -14.9540   -6.1800 H   0  0  0  0  0  0  0  0  0  0  0  0
   16.4160  -16.8300   -4.3310 H   0  0  0  0  0  0  0  0  0  0  0  0
   15.3680  -14.6410   -4.0930 H   0  0  0  0  0  0  0  0  0  0  0  0
   20.8950  -16.7010   -5.7740 H   0  0  0  0  0  0  0  0  0  0  0  0
   21.9100  -18.9030   -6.0710 H   0  0  0  0  0  0  0  0  0  0  0  0
   20.5560  -20.9510   -5.9320 H   0  0  0  0  0  0  0  0  0  0  0  0
   17.0540  -18.5580   -5.1560 H   0  0  0  0  0  0  0  0  0  0  0  0
   17.0290  -20.9930   -4.7020 H   0  0  0  0  0  0  0  0  0  0  0  0
   18.4620  -21.9730   -5.0370 H   0  0  0  0  0  0  0  0  0  0  0  0
   19.1650  -22.2920   -7.3490 H   0  0  0  0  0  0  0  0  0  0  0  0
   18.6920  -20.6850   -7.9740 H   0  0  0  0  0  0  0  0  0  0  0  0
   18.6800  -22.4860   -9.8120 H   0  0  0  0  0  0  0  0  0  0  0  0
   17.1950  -21.6280   -9.6150 H   0  0  0  0  0  0  0  0  0  0  0  0
   15.3040  -24.2470   -7.8220 H   0  0  0  0  0  0  0  0  0  0  0  0
   15.2860  -22.5990   -8.3780 H   0  0  0  0  0  0  0  0  0  0  0  0
   15.6310  -22.7460   -5.9110 H   0  0  0  0  0  0  0  0  0  0  0  0
   17.1600  -23.6590   -6.1560 H   0  0  0  0  0  0  0  0  0  0  0  0
   15.8970  -25.9280   -8.1960 H   0  0  0  0  0  0  0  0  0  0  0  0
   16.9040  -28.1140   -8.0260 H   0  0  0  0  0  0  0  0  0  0  0  0
   19.2910  -28.4840   -8.6610 H   0  0  0  0  0  0  0  0  0  0  0  0
   16.6030  -20.9100   -7.0200 H   0  0  0  0  0  0  0  0  0  0  0  0
  1  2  1  0  0  0  0
  1  6  2  0  0  0  0
  1 31  1  0  0  0  0
  2  3  2  0  0  0  0
  2 32  1  0  0  0  0
  3  4  1  0  0  0  0
  3 33  1  0  0  0  0
  4  5  2  0  0  0  0
  4  7  1  0  0  0  0
  5  6  1  0  0  0  0
  5 34  1  0  0  0  0
  6 35  1  0  0  0  0
  7  8  1  0  0  0  0
  7 12  2  0  0  0  0
  8  9  2  0  0  0  0
  8 36  1  0  0  0  0
  9 10  1  0  0  0  0
  9 37  1  0  0  0  0
 10 11  2  0  0  0  0
 10 38  1  0  0  0  0
 11 12  1  0  0  0  0
 11 13  1  0  0  0  0
 12 39  1  0  0  0  0
 13 14  1  0  0  0  0
 13 40  1  0  0  0  0
 13 41  1  0  0  0  0
 14 15  1  0  0  0  0
 14 19  1  0  0  0  0
 14 53  1  0  0  0  0
 15 16  1  0  0  0  0
 15 42  1  0  0  0  0
 15 43  1  0  0  0  0
 16 17  1  0  0  0  0
 16 44  1  0  0  0  0
 16 45  1  0  0  0  0
 17 18  1  0  0  0  0
 17 20  1  0  0  0  0
 18 19  1  0  0  0  0
 18 46  1  0  0  0  0
 18 47  1  0  0  0  0
 19 48  1  0  0  0  0
 19 49  1  0  0  0  0
 20 21  1  0  0  0  0
 20 25  2  0  0  0  0
 21 22  2  0  0  0  0
 21 50  1  0  0  0  0
 22 23  1  0  0  0  0
 22 51  1  0  0  0  0
 23 24  2  0  0  0  0
 23 52  1  0  0  0  0
 24 25  1  0  0  0  0
 24 29  1  0  0  0  0
 25 26  1  0  0  0  0
 26 27  1  0  0  0  0
 27 28  2  0  0  0  0
 27 29  1  0  0  0  0
 29 30  1  0  0  0  0
M  CHG  1  14   1
M  END
>  <Name>
DB04888

$$$$
DB07476
  MOE2022           3D
DB07476
 31 32  0  0  0  0  0  0  0  0999 V2000
   17.4200  -17.3120   -5.1920 C   0  0  0  0  0  0  0  0  0  0  0  0
   16.5870  -16.6420   -5.0370 H   0  0  0  0  0  0  0  0  0  0  0  0
   18.7210  -16.8600   -5.0250 C   0  0  0  0  0  0  0  0  0  0  0  0
   18.9050  -15.8370   -4.7310 H   0  0  0  0  0  0  0  0  0  0  0  0
   19.7920  -17.7290   -5.2370 C   0  0  0  0  0  0  0  0  0  0  0  0
   20.8010  -17.3690   -5.1020 H   0  0  0  0  0  0  0  0  0  0  0  0
   19.5830  -19.0640   -5.6230 C   0  0  0  0  0  0  0  0  0  0  0  0
   18.2600  -19.5430   -5.7830 C   0  0  0  0  0  0  0  0  0  0  0  0
   17.1950  -18.6380   -5.5610 C   0  0  0  0  0  0  0  0  0  0  0  0
   16.1790  -18.9840   -5.6810 H   0  0  0  0  0  0  0  0  0  0  0  0
   17.8180  -20.9330   -6.1910 C   0  0  0  0  0  0  0  0  0  0  0  0
   16.9290  -21.4880   -5.5430 O   0  0  0  0  0  0  0  0  0  0  0  0
   18.4430  -21.4780   -7.2890 N   0  0  0  0  0  0  0  0  0  0  0  0
   19.2000  -20.9320   -7.6740 H   0  0  0  0  0  0  0  0  0  0  0  0
   18.1740  -22.6860   -7.9470 C   0  0  0  0  0  0  0  0  0  0  0  0
   16.9550  -23.3180   -7.6670 C   0  0  0  0  0  0  0  0  0  0  0  0
   16.2670  -22.8660   -6.9680 H   0  0  0  0  0  0  0  0  0  0  0  0
   16.6200  -24.5280   -8.2840 C   0  0  0  0  0  0  0  0  0  0  0  0
   15.6770  -25.0080   -8.0680 H   0  0  0  0  0  0  0  0  0  0  0  0
   17.5170  -25.1090   -9.1820 C   0  0  0  0  0  0  0  0  0  0  0  0
   18.7300  -24.4860   -9.4750 C   0  0  0  0  0  0  0  0  0  0  0  0
   19.4130  -24.9330  -10.1820 H   0  0  0  0  0  0  0  0  0  0  0  0
   19.0570  -23.2830   -8.8500 C   0  0  0  0  0  0  0  0  0  0  0  0
   20.0020  -22.8080   -9.0660 H   0  0  0  0  0  0  0  0  0  0  0  0
   17.1020  -26.6170   -9.9980 S   0  0  0  0  0  0  0  0  0  0  0  0
   16.0800  -26.3730  -10.9860 O   0  0  0  0  0  0  0  0  0  0  0  0
   18.3090  -27.3520  -10.3090 O   0  0  0  0  0  0  0  0  0  0  0  0
   16.3520  -27.4840   -8.7720 N   0  0  0  0  0  0  0  0  0  0  0  0
   15.4950  -27.0200   -8.5070 H   0  0  0  0  0  0  0  0  0  0  0  0
   16.9670  -27.5380   -7.9730 H   0  0  0  0  0  0  0  0  0  0  0  0
   21.0250  -19.9900   -5.8770 S   0  5  0  0  0  0  0  0  0  0  0  0
  1  2  1  0  0  0  0
  1  3  1  0  0  0  0
  1  9  2  0  0  0  0
  3  4  1  0  0  0  0
  3  5  2  0  0  0  0
  5  6  1  0  0  0  0
  5  7  1  0  0  0  0
  7  8  2  0  0  0  0
  7 31  1  0  0  0  0
  8  9  1  0  0  0  0
  8 11  1  0  0  0  0
  9 10  1  0  0  0  0
 11 12  2  0  0  0  0
 11 13  1  0  0  0  0
 13 14  1  0  0  0  0
 13 15  1  0  0  0  0
 15 16  1  0  0  0  0
 15 23  2  0  0  0  0
 16 17  1  0  0  0  0
 16 18  2  0  0  0  0
 18 19  1  0  0  0  0
 18 20  1  0  0  0  0
 20 21  2  0  0  0  0
 20 25  1  0  0  0  0
 21 22  1  0  0  0  0
 21 23  1  0  0  0  0
 23 24  1  0  0  0  0
 25 26  2  0  0  0  0
 25 27  2  0  0  0  0
 25 28  1  0  0  0  0
 28 29  1  0  0  0  0
 28 30  1  0  0  0  0
M  CHG  1  31  -1
M  END
>  <Name>
DB07476

$$$$
DB07531
  MOE2022           3D
DB07531
 32 34  0  0  0  0  0  0  0  0999 V2000
   18.3430  -23.5830   -9.6760 C   0  0  0  0  0  0  0  0  0  0  0  0
   18.5400  -24.5380  -10.6770 C   0  0  0  0  0  0  0  0  0  0  0  0
   17.8330  -25.7400  -10.6260 C   0  0  0  0  0  0  0  0  0  0  0  0
   16.9500  -26.0020   -9.5780 C   0  0  0  0  0  0  0  0  0  0  0  0
   16.7580  -25.0400   -8.5830 C   0  0  0  0  0  0  0  0  0  0  0  0
   17.4520  -23.8210   -8.6150 C   0  0  0  0  0  0  0  0  0  0  0  0
   17.2700  -22.8200   -7.5680 C   0  0  0  0  0  0  0  0  0  0  0  0
   16.2880  -22.5830   -6.6350 C   0  0  0  0  0  0  0  0  0  0  0  0
   16.6930  -21.4360   -5.9180 C   0  0  0  0  0  0  0  0  0  0  0  0
   17.9310  -21.0280   -6.4010 C   0  0  0  0  0  0  0  0  0  0  0  0
   18.2490  -21.8780   -7.4430 O   0  0  0  0  0  0  0  0  0  0  0  0
   18.7810  -19.9490   -6.0250 C   0  0  0  0  0  0  0  0  0  0  0  0
   18.3770  -18.7500   -5.5820 C   0  0  0  0  0  0  0  0  0  0  0  0
   19.3550  -17.6830   -5.2390 C   0  0  0  0  0  0  0  0  0  0  0  0
   20.5640  -17.8690   -5.3410 O   0  0  0  0  0  0  0  0  0  0  0  0
   18.7690  -16.5520   -4.8390 N   0  0  0  0  0  0  0  0  0  0  0  0
   17.4420  -16.5980   -4.8110 C   0  0  0  0  0  0  0  0  0  0  0  0
   16.6780  -15.6910   -4.5030 O   0  0  0  0  0  0  0  0  0  0  0  0
   16.8090  -18.1590   -5.2830 S   0  0  0  0  0  0  0  0  0  0  0  0
   18.0860  -26.9580  -11.8790 S   0  0  0  0  0  0  0  0  0  0  0  0
   18.2260  -26.3070  -13.1610 O   0  0  0  0  0  0  0  0  0  0  0  0
   19.0280  -27.9470  -11.4090 O   0  0  0  0  0  0  0  0  0  0  0  0
   16.5930  -27.7220  -11.9140 N   0  0  0  0  0  0  0  0  0  0  0  0
   18.8960  -22.6490   -9.7340 H   0  0  0  0  0  0  0  0  0  0  0  0
   19.2380  -24.3330  -11.4850 H   0  0  0  0  0  0  0  0  0  0  0  0
   16.4060  -26.9420   -9.5250 H   0  0  0  0  0  0  0  0  0  0  0  0
   16.0610  -25.2510   -7.7730 H   0  0  0  0  0  0  0  0  0  0  0  0
   15.3820  -23.1500   -6.4860 H   0  0  0  0  0  0  0  0  0  0  0  0
   16.1400  -20.9560   -5.1230 H   0  0  0  0  0  0  0  0  0  0  0  0
   19.8500  -20.1380   -6.0890 H   0  0  0  0  0  0  0  0  0  0  0  0
   15.9230  -27.1590  -12.4360 H   0  0  0  0  0  0  0  0  0  0  0  0
   16.6970  -28.6790  -12.2500 H   0  0  0  0  0  0  0  0  0  0  0  0
  1  2  1  0  0  0  0
  1  6  2  0  0  0  0
  1 24  1  0  0  0  0
  2  3  2  0  0  0  0
  2 25  1  0  0  0  0
  3  4  1  0  0  0  0
  3 20  1  0  0  0  0
  4  5  2  0  0  0  0
  4 26  1  0  0  0  0
  5  6  1  0  0  0  0
  5 27  1  0  0  0  0
  6  7  1  0  0  0  0
  7  8  2  0  0  0  0
  7 11  1  0  0  0  0
  8  9  1  0  0  0  0
  8 28  1  0  0  0  0
  9 10  2  0  0  0  0
  9 29  1  0  0  0  0
 10 11  1  0  0  0  0
 10 12  1  0  0  0  0
 12 13  2  0  0  0  0
 12 30  1  0  0  0  0
 13 14  1  0  0  0  0
 13 19  1  0  0  0  0
 14 15  2  0  0  0  0
 14 16  1  0  0  0  0
 16 17  1  0  0  0  0
 17 18  2  0  0  0  0
 17 19  1  0  0  0  0
 20 21  2  0  0  0  0
 20 22  2  0  0  0  0
 20 23  1  0  0  0  0
 23 31  1  0  0  0  0
 23 32  1  0  0  0  0
M  END
>  <Name>
DB07531

$$$$
DB07537
  MOE2022           3D
DB07537
 53 55  0  0  0  0  0  0  0  0999 V2000
   14.3660  -22.9330   -6.2860 C   0  0  0  0  0  0  0  0  0  0  0  0
   15.6360  -23.2520   -7.0360 C   0  0  0  0  0  0  0  0  0  0  0  0
   15.6060  -24.4480   -7.7700 C   0  0  0  0  0  0  0  0  0  0  0  0
   16.6550  -24.8170   -8.6070 C   0  0  0  0  0  0  0  0  0  0  0  0
   17.7580  -23.9800   -8.7590 C   0  0  0  0  0  0  0  0  0  0  0  0
   17.8460  -22.8190   -7.9820 C   0  0  0  0  0  0  0  0  0  0  0  0
   16.8020  -22.4550   -7.0970 C   0  0  0  0  0  0  0  0  0  0  0  0
   16.9680  -21.2080   -6.2930 C   0  0  0  0  0  0  0  0  0  0  0  0
   16.0580  -20.8490   -5.5420 O   0  0  0  0  0  0  0  0  0  0  0  0
   18.1590  -20.5200   -6.4910 N   0  0  0  0  0  0  0  0  0  0  0  0
   18.4760  -19.2550   -5.9510 C   0  0  0  0  0  0  0  0  0  0  0  0
   19.7710  -18.7640   -6.0990 C   0  0  0  0  0  0  0  0  0  0  0  0
   20.0800  -17.4900   -5.6170 C   0  0  0  0  0  0  0  0  0  0  0  0
   19.0900  -16.7540   -4.9820 C   0  0  0  0  0  0  0  0  0  0  0  0
   17.8480  -17.2120   -4.7970 N   0  0  0  0  0  0  0  0  0  0  0  0
   17.5630  -18.4430   -5.2860 C   0  0  0  0  0  0  0  0  0  0  0  0
   19.3310  -15.4590   -4.5400 N   0  0  0  0  0  0  0  0  0  0  0  0
   18.8330  -24.3140   -9.7370 C   0  0  0  0  0  0  0  0  0  0  0  0
   19.8750  -23.6700   -9.7550 O   0  0  0  0  0  0  0  0  0  0  0  0
   18.5480  -25.3590  -10.5950 N   0  0  0  0  0  0  0  0  0  0  0  0
   19.5020  -25.8910  -11.5470 C   0  0  0  0  0  0  0  0  0  0  0  0
   19.4010  -25.1960  -12.9080 C   0  0  0  0  0  0  0  0  0  0  0  0
   18.1190  -25.5490  -13.6760 C   0  0  0  0  0  0  0  0  0  0  0  0
   18.2260  -25.3500  -15.1880 C   0  0  0  0  0  0  0  0  0  0  0  0
   17.1130  -26.2290  -15.7310 C   0  0  0  0  0  0  0  0  0  0  0  0
   17.2170  -27.4860  -14.8820 C   0  0  0  0  0  0  0  0  0  0  0  0
   17.6970  -27.0170  -13.5070 C   0  0  0  0  0  0  0  0  0  0  0  0
   14.4000  -22.0560   -5.6420 H   0  0  0  0  0  0  0  0  0  0  0  0
   14.0900  -23.7800   -5.6470 H   0  0  0  0  0  0  0  0  0  0  0  0
   13.5560  -22.7780   -7.0100 H   0  0  0  0  0  0  0  0  0  0  0  0
   14.7400  -25.1050   -7.7020 H   0  0  0  0  0  0  0  0  0  0  0  0
   16.5910  -25.7620   -9.1360 H   0  0  0  0  0  0  0  0  0  0  0  0
   18.7170  -22.1790   -8.1110 H   0  0  0  0  0  0  0  0  0  0  0  0
   18.8500  -20.9140   -7.1190 H   0  0  0  0  0  0  0  0  0  0  0  0
   20.5400  -19.3270   -6.6230 H   0  0  0  0  0  0  0  0  0  0  0  0
   21.0670  -17.0660   -5.7650 H   0  0  0  0  0  0  0  0  0  0  0  0
   16.5430  -18.7530   -5.0960 H   0  0  0  0  0  0  0  0  0  0  0  0
   20.1240  -15.4220   -3.9130 H   0  0  0  0  0  0  0  0  0  0  0  0
   18.4720  -15.1560   -4.0840 H   0  0  0  0  0  0  0  0  0  0  0  0
   17.6430  -25.8070  -10.5630 H   0  0  0  0  0  0  0  0  0  0  0  0
   19.3340  -26.9660  -11.6590 H   0  0  0  0  0  0  0  0  0  0  0  0
   20.4990  -25.7530  -11.1160 H   0  0  0  0  0  0  0  0  0  0  0  0
   20.2700  -25.4680  -13.5200 H   0  0  0  0  0  0  0  0  0  0  0  0
   19.4510  -24.1110  -12.7520 H   0  0  0  0  0  0  0  0  0  0  0  0
   17.2970  -24.9250  -13.3010 H   0  0  0  0  0  0  0  0  0  0  0  0
   19.1970  -25.6950  -15.5630 H   0  0  0  0  0  0  0  0  0  0  0  0
   18.0950  -24.3050  -15.4820 H   0  0  0  0  0  0  0  0  0  0  0  0
   17.2290  -26.4370  -16.7980 H   0  0  0  0  0  0  0  0  0  0  0  0
   16.1400  -25.7480  -15.5790 H   0  0  0  0  0  0  0  0  0  0  0  0
   17.9610  -28.1660  -15.3160 H   0  0  0  0  0  0  0  0  0  0  0  0
   16.2670  -28.0260  -14.8280 H   0  0  0  0  0  0  0  0  0  0  0  0
   16.8890  -27.0920  -12.7710 H   0  0  0  0  0  0  0  0  0  0  0  0
   18.5160  -27.6530  -13.1540 H   0  0  0  0  0  0  0  0  0  0  0  0
  1  2  1  0  0  0  0
  1 28  1  0  0  0  0
  1 29  1  0  0  0  0
  1 30  1  0  0  0  0
  2  3  1  0  0  0  0
  2  7  2  0  0  0  0
  3  4  2  0  0  0  0
  3 31  1  0  0  0  0
  4  5  1  0  0  0  0
  4 32  1  0  0  0  0
  5  6  2  0  0  0  0
  5 18  1  0  0  0  0
  6  7  1  0  0  0  0
  6 33  1  0  0  0  0
  7  8  1  0  0  0  0
  8  9  2  0  0  0  0
  8 10  1  0  0  0  0
 10 11  1  0  0  0  0
 10 34  1  0  0  0  0
 11 12  1  0  0  0  0
 11 16  2  0  0  0  0
 12 13  2  0  0  0  0
 12 35  1  0  0  0  0
 13 14  1  0  0  0  0
 13 36  1  0  0  0  0
 14 15  2  0  0  0  0
 14 17  1  0  0  0  0
 15 16  1  0  0  0  0
 16 37  1  0  0  0  0
 17 38  1  0  0  0  0
 17 39  1  0  0  0  0
 18 19  2  0  0  0  0
 18 20  1  0  0  0  0
 20 21  1  0  0  0  0
 20 40  1  0  0  0  0
 21 22  1  0  0  0  0
 21 41  1  0  0  0  0
 21 42  1  0  0  0  0
 22 23  1  0  0  0  0
 22 43  1  0  0  0  0
 22 44  1  0  0  0  0
 23 24  1  0  0  0  0
 23 27  1  0  0  0  0
 23 45  1  0  0  0  0
 24 25  1  0  0  0  0
 24 46  1  0  0  0  0
 24 47  1  0  0  0  0
 25 26  1  0  0  0  0
 25 48  1  0  0  0  0
 25 49  1  0  0  0  0
 26 27  1  0  0  0  0
 26 50  1  0  0  0  0
 26 51  1  0  0  0  0
 27 52  1  0  0  0  0
 27 53  1  0  0  0  0
M  END
>  <Name>
DB07537

$$$$
DB08399
  MOE2022           3D
DB08399
 30 31  0  0  0  0  0  0  0  0999 V2000
   17.7900  -22.2260   -7.5180 C   0  0  0  0  0  0  0  0  0  0  0  0
   17.5580  -23.4370   -8.1810 C   0  0  0  0  0  0  0  0  0  0  0  0
   16.2920  -24.0040   -8.1270 C   0  0  0  0  0  0  0  0  0  0  0  0
   15.2700  -23.3730   -7.4240 C   0  0  0  0  0  0  0  0  0  0  0  0
   15.4930  -22.1700   -6.7640 C   0  0  0  0  0  0  0  0  0  0  0  0
   16.7670  -21.5880   -6.7940 C   0  0  0  0  0  0  0  0  0  0  0  0
   17.0580  -20.3020   -6.1420 C   0  0  0  0  0  0  0  0  0  0  0  0
   18.2510  -19.6870   -6.2010 C   0  0  0  0  0  0  0  0  0  0  0  0
   18.5390  -18.3930   -5.5640 C   0  0  0  0  0  0  0  0  0  0  0  0
   19.8210  -17.8240   -5.5710 C   0  0  0  0  0  0  0  0  0  0  0  0
   20.0320  -16.5780   -4.9800 C   0  0  0  0  0  0  0  0  0  0  0  0
   18.9880  -15.8770   -4.3880 C   0  0  0  0  0  0  0  0  0  0  0  0
   17.7160  -16.4350   -4.3980 C   0  0  0  0  0  0  0  0  0  0  0  0
   17.4830  -17.6770   -4.9830 C   0  0  0  0  0  0  0  0  0  0  0  0
   16.6530  -15.7870   -3.8390 O   0  0  0  0  0  0  0  0  0  0  0  0
   21.2680  -15.9990   -4.9680 O   0  0  0  0  0  0  0  0  0  0  0  0
   14.0260  -23.9340   -7.3830 O   0  0  0  0  0  0  0  0  0  0  0  0
   16.0000  -25.1830   -8.7540 O   0  0  0  0  0  0  0  0  0  0  0  0
   18.7840  -21.7850   -7.5620 H   0  0  0  0  0  0  0  0  0  0  0  0
   18.3690  -23.9090   -8.7250 H   0  0  0  0  0  0  0  0  0  0  0  0
   14.6660  -21.6970   -6.2430 H   0  0  0  0  0  0  0  0  0  0  0  0
   16.2220  -19.8420   -5.6220 H   0  0  0  0  0  0  0  0  0  0  0  0
   19.0720  -20.1170   -6.7700 H   0  0  0  0  0  0  0  0  0  0  0  0
   20.6430  -18.3480   -6.0480 H   0  0  0  0  0  0  0  0  0  0  0  0
   19.1820  -14.9100   -3.9380 H   0  0  0  0  0  0  0  0  0  0  0  0
   16.4750  -18.0840   -4.9740 H   0  0  0  0  0  0  0  0  0  0  0  0
   16.3780  -15.0730   -4.4370 H   0  0  0  0  0  0  0  0  0  0  0  0
   21.5210  -15.8250   -4.0460 H   0  0  0  0  0  0  0  0  0  0  0  0
   14.0710  -24.6760   -8.0180 H   0  0  0  0  0  0  0  0  0  0  0  0
   15.2560  -25.5990   -8.2850 H   0  0  0  0  0  0  0  0  0  0  0  0
  1  2  1  0  0  0  0
  1  6  2  0  0  0  0
  1 19  1  0  0  0  0
  2  3  2  0  0  0  0
  2 20  1  0  0  0  0
  3  4  1  0  0  0  0
  3 18  1  0  0  0  0
  4  5  2  0  0  0  0
  4 17  1  0  0  0  0
  5  6  1  0  0  0  0
  5 21  1  0  0  0  0
  6  7  1  0  0  0  0
  7  8  2  0  0  0  0
  7 22  1  0  0  0  0
  8  9  1  0  0  0  0
  8 23  1  0  0  0  0
  9 10  2  0  0  0  0
  9 14  1  0  0  0  0
 10 11  1  0  0  0  0
 10 24  1  0  0  0  0
 11 12  2  0  0  0  0
 11 16  1  0  0  0  0
 12 13  1  0  0  0  0
 12 25  1  0  0  0  0
 13 14  2  0  0  0  0
 13 15  1  0  0  0  0
 14 26  1  0  0  0  0
 15 27  1  0  0  0  0
 16 28  1  0  0  0  0
 17 29  1  0  0  0  0
 18 30  1  0  0  0  0
M  END
>  <Name>
DB08399

$$$$
DB08754
  MOE2022           3D
DB08754
 39 40  0  0  0  0  0  0  0  0999 V2000
   19.5140  -15.8140   -4.1940 C   0  0  0  0  0  0  0  0  0  0  0  0
   19.3080  -14.8960   -3.1610 C   0  0  0  0  0  0  0  0  0  0  0  0
   18.0280  -14.7210   -2.6480 C   0  0  0  0  0  0  0  0  0  0  0  0
   16.9520  -15.4320   -3.1630 C   0  0  0  0  0  0  0  0  0  0  0  0
   17.1600  -16.3550   -4.1890 C   0  0  0  0  0  0  0  0  0  0  0  0
   18.4480  -16.5720   -4.7010 C   0  0  0  0  0  0  0  0  0  0  0  0
   18.6770  -17.6160   -5.7720 C   0  0  0  0  0  0  0  0  0  0  0  0
   18.4520  -19.0540   -5.2820 C   0  0  0  0  0  0  0  0  0  0  0  0
   18.4000  -20.0260   -6.3590 N   0  0  0  0  0  0  0  0  0  0  0  0
   17.6740  -21.1860   -6.2710 C   0  0  0  0  0  0  0  0  0  0  0  0
   16.9550  -21.4890   -5.3270 O   0  0  0  0  0  0  0  0  0  0  0  0
   17.8540  -22.0520   -7.4610 C   0  0  0  0  0  0  0  0  0  0  0  0
   17.2110  -23.2250   -7.5790 C   0  0  0  0  0  0  0  0  0  0  0  0
   17.3720  -24.1030   -8.7490 C   0  0  0  0  0  0  0  0  0  0  0  0
   18.1550  -23.6740   -9.8330 C   0  0  0  0  0  0  0  0  0  0  0  0
   18.3240  -24.4830  -10.9670 C   0  0  0  0  0  0  0  0  0  0  0  0
   17.7120  -25.7290  -11.0070 C   0  0  0  0  0  0  0  0  0  0  0  0
   16.9530  -26.1710   -9.9280 C   0  0  0  0  0  0  0  0  0  0  0  0
   16.7880  -25.3770   -8.8020 C   0  0  0  0  0  0  0  0  0  0  0  0
   16.3540  -27.3970   -9.9670 O   0  0  0  0  0  0  0  0  0  0  0  0
   17.8310  -26.5650  -12.0820 O   0  0  0  0  0  0  0  0  0  0  0  0
   17.7880  -13.8540   -1.6240 O   0  0  0  0  0  0  0  0  0  0  0  0
   20.5180  -15.9390   -4.5950 H   0  0  0  0  0  0  0  0  0  0  0  0
   20.1530  -14.3370   -2.7720 H   0  0  0  0  0  0  0  0  0  0  0  0
   15.9550  -15.2760   -2.7600 H   0  0  0  0  0  0  0  0  0  0  0  0
   16.3100  -16.9120   -4.5780 H   0  0  0  0  0  0  0  0  0  0  0  0
   19.7080  -17.5160   -6.1350 H   0  0  0  0  0  0  0  0  0  0  0  0
   18.0250  -17.4180   -6.6320 H   0  0  0  0  0  0  0  0  0  0  0  0
   17.5040  -19.1390   -4.7400 H   0  0  0  0  0  0  0  0  0  0  0  0
   19.2550  -19.3320   -4.5920 H   0  0  0  0  0  0  0  0  0  0  0  0
   19.0210  -19.8780   -7.1430 H   0  0  0  0  0  0  0  0  0  0  0  0
   18.5380  -21.7010   -8.2240 H   0  0  0  0  0  0  0  0  0  0  0  0
   16.5480  -23.5720   -6.7890 H   0  0  0  0  0  0  0  0  0  0  0  0
   18.6320  -22.6960   -9.8120 H   0  0  0  0  0  0  0  0  0  0  0  0
   18.9260  -24.1220  -11.7940 H   0  0  0  0  0  0  0  0  0  0  0  0
   16.2040  -25.7710   -7.9750 H   0  0  0  0  0  0  0  0  0  0  0  0
   15.4330  -27.2290   -9.6830 H   0  0  0  0  0  0  0  0  0  0  0  0
   18.1580  -27.4240  -11.7630 H   0  0  0  0  0  0  0  0  0  0  0  0
   17.3580  -14.3400   -0.9010 H   0  0  0  0  0  0  0  0  0  0  0  0
  1  2  1  0  0  0  0
  1  6  2  0  0  0  0
  1 23  1  0  0  0  0
  2  3  2  0  0  0  0
  2 24  1  0  0  0  0
  3  4  1  0  0  0  0
  3 22  1  0  0  0  0
  4  5  2  0  0  0  0
  4 25  1  0  0  0  0
  5  6  1  0  0  0  0
  5 26  1  0  0  0  0
  6  7  1  0  0  0  0
  7  8  1  0  0  0  0
  7 27  1  0  0  0  0
  7 28  1  0  0  0  0
  8  9  1  0  0  0  0
  8 29  1  0  0  0  0
  8 30  1  0  0  0  0
  9 10  1  0  0  0  0
  9 31  1  0  0  0  0
 10 11  2  0  0  0  0
 10 12  1  0  0  0  0
 12 13  2  0  0  0  0
 12 32  1  0  0  0  0
 13 14  1  0  0  0  0
 13 33  1  0  0  0  0
 14 15  2  0  0  0  0
 14 19  1  0  0  0  0
 15 16  1  0  0  0  0
 15 34  1  0  0  0  0
 16 17  2  0  0  0  0
 16 35  1  0  0  0  0
 17 18  1  0  0  0  0
 17 21  1  0  0  0  0
 18 19  2  0  0  0  0
 18 20  1  0  0  0  0
 19 36  1  0  0  0  0
 20 37  1  0  0  0  0
 21 38  1  0  0  0  0
 22 39  1  0  0  0  0
M  END
>  <Name>
DB08754

$$$$
DB12027
  MOE2022           3D
DB12027
 45 48  0  0  0  0  0  0  0  0999 V2000
   19.5520  -24.7760  -10.4550 C   0  0  0  0  0  0  0  0  0  0  0  0
   18.7170  -25.8650  -10.6410 C   0  0  0  0  0  0  0  0  0  0  0  0
   17.5000  -25.9560   -9.9540 C   0  0  0  0  0  0  0  0  0  0  0  0
   17.1480  -24.9050   -9.0990 C   0  0  0  0  0  0  0  0  0  0  0  0
   17.9740  -23.8060   -8.8620 C   0  0  0  0  0  0  0  0  0  0  0  0
   19.2070  -23.7770   -9.5440 C   0  0  0  0  0  0  0  0  0  0  0  0
   17.3390  -22.9510   -7.9120 C   0  0  0  0  0  0  0  0  0  0  0  0
   16.1190  -23.5510   -7.6170 C   0  0  0  0  0  0  0  0  0  0  0  0
   16.0200  -24.7210   -8.3310 N   0  0  0  0  0  0  0  0  0  0  0  0
   15.2480  -25.3700   -8.2910 H   0  0  0  0  0  0  0  0  0  0  0  0
   17.8520  -21.6830   -7.2560 C   0  0  0  0  0  0  0  0  0  0  0  0
   17.2020  -21.2250   -5.9360 C   0  0  0  0  0  0  0  0  0  0  0  0
   18.1250  -20.5320   -4.9980 N   0  0  0  0  0  0  0  0  0  0  0  0
   18.4040  -19.1780   -5.2940 C   0  0  0  0  0  0  0  0  0  0  0  0
   19.6590  -18.7540   -5.7410 C   0  0  0  0  0  0  0  0  0  0  0  0
   19.9210  -17.3800   -5.9740 C   0  0  0  0  0  0  0  0  0  0  0  0
   18.9160  -16.4100   -5.8370 C   0  0  0  0  0  0  0  0  0  0  0  0
   17.6330  -16.8840   -5.6010 C   0  0  0  0  0  0  0  0  0  0  0  0
   17.3890  -18.2240   -5.3080 C   0  0  0  0  0  0  0  0  0  0  0  0
   19.2240  -15.0320   -5.8520 N   0  0  0  0  0  0  0  0  0  0  0  0
   18.5990  -13.9010   -5.2690 C   0  0  0  0  0  0  0  0  0  0  0  0
   17.4860  -14.0860   -4.4400 C   0  0  0  0  0  0  0  0  0  0  0  0
   16.8900  -12.9840   -3.8300 C   0  0  0  0  0  0  0  0  0  0  0  0
   17.3250  -11.7180   -3.9670 N   0  0  0  0  0  0  0  0  0  0  0  0
   18.3770  -11.5440   -4.7860 C   0  0  0  0  0  0  0  0  0  0  0  0
   19.0090  -12.5790   -5.4640 C   0  0  0  0  0  0  0  0  0  0  0  0
   20.4910  -24.6940  -10.9960 H   0  0  0  0  0  0  0  0  0  0  0  0
   19.0210  -26.6600  -11.3170 H   0  0  0  0  0  0  0  0  0  0  0  0
   16.8600  -26.8240  -10.0880 H   0  0  0  0  0  0  0  0  0  0  0  0
   19.9060  -22.9720   -9.3710 H   0  0  0  0  0  0  0  0  0  0  0  0
   15.3210  -23.2690   -6.9460 H   0  0  0  0  0  0  0  0  0  0  0  0
   17.8430  -20.8760   -7.9980 H   0  0  0  0  0  0  0  0  0  0  0  0
   18.9090  -21.8720   -7.0180 H   0  0  0  0  0  0  0  0  0  0  0  0
   16.8660  -22.1260   -5.4050 H   0  0  0  0  0  0  0  0  0  0  0  0
   16.2950  -20.6600   -6.1640 H   0  0  0  0  0  0  0  0  0  0  0  0
   17.8270  -20.6460   -4.0320 H   0  0  0  0  0  0  0  0  0  0  0  0
   20.4650  -19.4690   -5.8900 H   0  0  0  0  0  0  0  0  0  0  0  0
   20.9320  -17.0860   -6.2520 H   0  0  0  0  0  0  0  0  0  0  0  0
   16.7740  -16.2300   -5.6600 H   0  0  0  0  0  0  0  0  0  0  0  0
   16.3570  -18.5020   -5.1190 H   0  0  0  0  0  0  0  0  0  0  0  0
   20.0670  -14.8150   -6.3690 H   0  0  0  0  0  0  0  0  0  0  0  0
   17.0640  -15.0700   -4.2680 H   0  0  0  0  0  0  0  0  0  0  0  0
   16.0170  -13.0990   -3.1940 H   0  0  0  0  0  0  0  0  0  0  0  0
   18.7160  -10.5180   -4.9010 H   0  0  0  0  0  0  0  0  0  0  0  0
   19.7980  -12.3030   -6.1470 H   0  0  0  0  0  0  0  0  0  0  0  0
  1  2  1  0  0  0  0
  1  6  2  0  0  0  0
  1 27  1  0  0  0  0
  2  3  2  0  0  0  0
  2 28  1  0  0  0  0
  3  4  1  0  0  0  0
  3 29  1  0  0  0  0
  4  5  2  0  0  0  0
  4  9  1  0  0  0  0
  5  6  1  0  0  0  0
  5  7  1  0  0  0  0
  6 30  1  0  0  0  0
  7  8  2  0  0  0  0
  7 11  1  0  0  0  0
  8  9  1  0  0  0  0
  8 31  1  0  0  0  0
  9 10  1  0  0  0  0
 11 12  1  0  0  0  0
 11 32  1  0  0  0  0
 11 33  1  0  0  0  0
 12 13  1  0  0  0  0
 12 34  1  0  0  0  0
 12 35  1  0  0  0  0
 13 14  1  0  0  0  0
 13 36  1  0  0  0  0
 14 15  1  0  0  0  0
 14 19  2  0  0  0  0
 15 16  2  0  0  0  0
 15 37  1  0  0  0  0
 16 17  1  0  0  0  0
 16 38  1  0  0  0  0
 17 18  2  0  0  0  0
 17 20  1  0  0  0  0
 18 19  1  0  0  0  0
 18 39  1  0  0  0  0
 19 40  1  0  0  0  0
 20 21  1  0  0  0  0
 20 41  1  0  0  0  0
 21 22  1  0  0  0  0
 21 26  2  0  0  0  0
 22 23  2  0  0  0  0
 22 42  1  0  0  0  0
 23 24  1  0  0  0  0
 23 43  1  0  0  0  0
 24 25  2  0  0  0  0
 25 26  1  0  0  0  0
 25 44  1  0  0  0  0
 26 45  1  0  0  0  0
M  END
>  <Name>
DB12027

$$$$
DB12558
  MOE2022           3D
DB12558
 66 70  0  0  1  0  0  0  0  0999 V2000
   21.3900  -14.2490  -10.3440 C   0  0  0  0  0  0  0  0  0  0  0  0
   22.1540  -14.7520  -10.9370 H   0  0  0  0  0  0  0  0  0  0  0  0
   21.0700  -13.3420  -10.8580 H   0  0  0  0  0  0  0  0  0  0  0  0
   20.5360  -14.9130  -10.2130 H   0  0  0  0  0  0  0  0  0  0  0  0
   21.9640  -13.8840   -8.9790 C   0  0  0  0  0  0  0  0  0  0  0  0
   22.8230  -13.2310   -9.1340 H   0  0  0  0  0  0  0  0  0  0  0  0
   22.2890  -14.8020   -8.4890 H   0  0  0  0  0  0  0  0  0  0  0  0
   21.0160  -13.1940   -8.0840 N   0  3  0  0  0  0  0  0  0  0  0  0
   20.7980  -12.3380   -8.5740 H   0  0  0  0  0  0  0  0  0  0  0  0
   21.5710  -12.8100   -6.7780 C   0  0  0  0  0  0  0  0  0  0  0  0
   20.8440  -12.1750   -6.2710 H   0  0  0  0  0  0  0  0  0  0  0  0
   22.4890  -12.2470   -6.9480 H   0  0  0  0  0  0  0  0  0  0  0  0
   21.8980  -13.9990   -5.8590 C   0  0  0  0  0  0  0  0  0  0  0  0
   22.2240  -13.6190   -4.8910 H   0  0  0  0  0  0  0  0  0  0  0  0
   22.7000  -14.5840   -6.3090 H   0  0  0  0  0  0  0  0  0  0  0  0
   20.6840  -14.8960   -5.6560 N   0  0  0  0  0  0  0  0  0  0  0  0
   19.9680  -15.2290   -6.9670 C   0  0  0  0  0  0  0  0  0  0  0  0
   18.9840  -15.6380   -6.7350 H   0  0  0  0  0  0  0  0  0  0  0  0
   20.5530  -15.9740   -7.5060 H   0  0  0  0  0  0  0  0  0  0  0  0
   19.7900  -13.9870   -7.8710 C   0  0  0  0  0  0  0  0  0  0  0  0
   19.4320  -14.3240   -8.8440 H   0  0  0  0  0  0  0  0  0  0  0  0
   19.0430  -13.3390   -7.4130 H   0  0  0  0  0  0  0  0  0  0  0  0
   21.0250  -16.1650   -4.8910 C   0  0  0  0  0  0  0  0  0  0  0  0
   20.8800  -15.9680   -3.8290 H   0  0  0  0  0  0  0  0  0  0  0  0
   22.0730  -16.4000   -5.0770 H   0  0  0  0  0  0  0  0  0  0  0  0
   20.2030  -17.3760   -5.2580 C   0  0  0  0  0  0  0  0  0  0  0  0
   18.8020  -17.3450   -5.1870 C   0  0  0  0  0  0  0  0  0  0  0  0
   18.3050  -16.4510   -4.8420 H   0  0  0  0  0  0  0  0  0  0  0  0
   18.0400  -18.4610   -5.5590 C   0  0  0  0  0  0  0  0  0  0  0  0
   16.9620  -18.4050   -5.5200 H   0  0  0  0  0  0  0  0  0  0  0  0
   18.6530  -19.6470   -5.9810 C   0  0  0  0  0  0  0  0  0  0  0  0
   20.0510  -19.6900   -6.0160 C   0  0  0  0  0  0  0  0  0  0  0  0
   20.5470  -20.6020   -6.3140 H   0  0  0  0  0  0  0  0  0  0  0  0
   20.8190  -18.5660   -5.6700 C   0  0  0  0  0  0  0  0  0  0  0  0
   21.8960  -18.6190   -5.7220 H   0  0  0  0  0  0  0  0  0  0  0  0
   17.8300  -20.8020   -6.3570 C   0  0  0  0  0  0  0  0  0  0  0  0
   18.1270  -21.9100   -7.1420 C   0  0  0  0  0  0  0  0  0  0  0  0
   19.0910  -22.1320   -7.5760 H   0  0  0  0  0  0  0  0  0  0  0  0
   16.9520  -22.7060   -7.2820 C   0  0  0  0  0  0  0  0  0  0  0  0
   15.9720  -22.0760   -6.5420 C   0  0  0  0  0  0  0  0  0  0  0  0
   16.5020  -20.9380   -5.9960 N   0  0  0  0  0  0  0  0  0  0  0  0
   15.9940  -20.2890   -5.4120 H   0  0  0  0  0  0  0  0  0  0  0  0
   14.6980  -22.4620   -6.3830 N   0  0  0  0  0  0  0  0  0  0  0  0
   14.4490  -23.5880   -7.0720 C   0  0  0  0  0  0  0  0  0  0  0  0
   13.4470  -23.9810   -6.9880 H   0  0  0  0  0  0  0  0  0  0  0  0
   15.2930  -24.2880   -7.8540 N   0  0  0  0  0  0  0  0  0  0  0  0
   16.5770  -23.8700   -7.9830 C   0  0  0  0  0  0  0  0  0  0  0  0
   17.4500  -24.5410   -8.8190 N   0  0  0  0  0  0  0  0  0  0  0  0
   18.2670  -24.0700   -9.1800 H   0  0  0  0  0  0  0  0  0  0  0  0
   17.1890  -25.9260   -9.1770 C   0  0  3  0  0  0  0  0  0  0  0  0
   16.1500  -26.2000   -8.9960 H   0  0  0  0  0  0  0  0  0  0  0  0
   18.0080  -26.8670   -8.2910 C   0  0  0  0  0  0  0  0  0  0  0  0
   19.0690  -26.6530   -8.4170 H   0  0  0  0  0  0  0  0  0  0  0  0
   17.8090  -27.9000   -8.5770 H   0  0  0  0  0  0  0  0  0  0  0  0
   17.7290  -26.7180   -7.2480 H   0  0  0  0  0  0  0  0  0  0  0  0
   17.4500  -26.0840  -10.6710 C   0  0  0  0  0  0  0  0  0  0  0  0
   16.8640  -27.1700  -11.3490 C   0  0  0  0  0  0  0  0  0  0  0  0
   16.2350  -27.8590  -10.8050 H   0  0  0  0  0  0  0  0  0  0  0  0
   17.0830  -27.3700  -12.7140 C   0  0  0  0  0  0  0  0  0  0  0  0
   16.6330  -28.2140  -13.2150 H   0  0  0  0  0  0  0  0  0  0  0  0
   17.8810  -26.4810  -13.4280 C   0  0  0  0  0  0  0  0  0  0  0  0
   18.0570  -26.6380  -14.4820 H   0  0  0  0  0  0  0  0  0  0  0  0
   18.4520  -25.3890  -12.7800 C   0  0  0  0  0  0  0  0  0  0  0  0
   19.0660  -24.6950  -13.3350 H   0  0  0  0  0  0  0  0  0  0  0  0
   18.2340  -25.1870  -11.4140 C   0  0  0  0  0  0  0  0  0  0  0  0
   18.6740  -24.3310  -10.9240 H   0  0  0  0  0  0  0  0  0  0  0  0
  1  2  1  0  0  0  0
  1  3  1  0  0  0  0
  1  4  1  0  0  0  0
  1  5  1  0  0  0  0
  5  6  1  0  0  0  0
  5  7  1  0  0  0  0
  5  8  1  0  0  0  0
  8  9  1  0  0  0  0
  8 10  1  0  0  0  0
  8 20  1  0  0  0  0
 10 11  1  0  0  0  0
 10 12  1  0  0  0  0
 10 13  1  0  0  0  0
 13 14  1  0  0  0  0
 13 15  1  0  0  0  0
 13 16  1  0  0  0  0
 16 17  1  0  0  0  0
 16 23  1  0  0  0  0
 17 18  1  0  0  0  0
 17 19  1  0  0  0  0
 17 20  1  0  0  0  0
 20 21  1  0  0  0  0
 20 22  1  0  0  0  0
 23 24  1  0  0  0  0
 23 25  1  0  0  0  0
 23 26  1  0  0  0  0
 26 27  1  0  0  0  0
 26 34  2  0  0  0  0
 27 28  1  0  0  0  0
 27 29  2  0  0  0  0
 29 30  1  0  0  0  0
 29 31  1  0  0  0  0
 31 32  2  0  0  0  0
 31 36  1  0  0  0  0
 32 33  1  0  0  0  0
 32 34  1  0  0  0  0
 34 35  1  0  0  0  0
 36 37  2  0  0  0  0
 36 41  1  0  0  0  0
 37 38  1  0  0  0  0
 37 39  1  0  0  0  0
 39 40  1  0  0  0  0
 39 47  2  0  0  0  0
 40 41  1  0  0  0  0
 40 43  2  0  0  0  0
 41 42  1  0  0  0  0
 43 44  1  0  0  0  0
 44 45  1  0  0  0  0
 44 46  2  0  0  0  0
 46 47  1  0  0  0  0
 47 48  1  0  0  0  0
 48 49  1  0  0  0  0
 48 50  1  0  0  0  0
 50 51  1  0  0  0  0
 50 52  1  0  0  0  0
 50 56  1  0  0  0  0
 52 53  1  0  0  0  0
 52 54  1  0  0  0  0
 52 55  1  0  0  0  0
 56 57  1  0  0  0  0
 56 65  2  0  0  0  0
 57 58  1  0  0  0  0
 57 59  2  0  0  0  0
 59 60  1  0  0  0  0
 59 61  1  0  0  0  0
 61 62  1  0  0  0  0
 61 63  2  0  0  0  0
 63 64  1  0  0  0  0
 63 65  1  0  0  0  0
 65 66  1  0  0  0  0
M  CHG  1   8   1
M  END
>  <Name>
DB12558

$$$$
DB12882
  MOE2022           3D
DB12882
 56 57  0  0  1  0  0  0  0  0999 V2000
   22.0440  -15.0320   -3.5220 C   0  0  0  0  0  0  0  0  0  0  0  0
   20.6080  -15.1640   -3.6240 O   0  0  0  0  0  0  0  0  0  0  0  0
   19.9350  -16.1830   -4.2800 C   0  0  0  0  0  0  0  0  0  0  0  0
   20.6530  -17.2510   -4.8200 C   0  0  0  0  0  0  0  0  0  0  0  0
   19.9790  -18.3520   -5.3310 C   0  0  0  0  0  0  0  0  0  0  0  0
   18.5760  -18.4100   -5.3270 C   0  0  0  0  0  0  0  0  0  0  0  0
   17.8590  -17.2940   -4.8660 C   0  0  0  0  0  0  0  0  0  0  0  0
   18.5260  -16.1940   -4.3230 C   0  0  0  0  0  0  0  0  0  0  0  0
   17.7240  -15.1830   -3.6970 N   0  0  0  0  0  0  0  0  0  0  0  0
   18.0060  -13.8330   -3.6080 C   0  0  0  0  0  0  0  0  0  0  0  0
   18.7940  -13.3090   -4.3760 O   0  0  0  0  0  0  0  0  0  0  0  0
   17.4110  -13.1160   -2.3950 C   0  0  3  0  0  0  0  0  0  0  0  0
   16.4180  -13.4880   -2.1790 H   0  0  0  0  0  0  0  0  0  0  0  0
   17.4100  -11.5850   -2.6000 C   0  0  0  0  0  0  0  0  0  0  0  0
   16.5220  -11.3290   -3.6590 O   0  0  0  0  0  0  0  0  0  0  0  0
   18.3150  -13.3690   -1.2720 N   0  3  0  0  0  0  0  0  0  0  0  0
   18.3900  -14.3680   -1.1420 H   0  0  0  0  0  0  0  0  0  0  0  0
   19.2170  -12.9770   -1.5060 H   0  0  0  0  0  0  0  0  0  0  0  0
   17.8740  -19.5980   -5.7980 C   0  0  0  0  0  0  0  0  0  0  0  0
   18.4220  -20.8410   -5.8830 C   0  0  0  0  0  0  0  0  0  0  0  0
   17.8000  -21.9760   -6.5520 C   0  0  0  0  0  0  0  0  0  0  0  0
   18.5840  -22.7790   -7.3940 C   0  0  0  0  0  0  0  0  0  0  0  0
   18.0150  -23.7940   -8.1570 C   0  0  0  0  0  0  0  0  0  0  0  0
   16.6510  -24.0670   -8.0440 C   0  0  0  0  0  0  0  0  0  0  0  0
   15.8630  -23.2900   -7.1860 C   0  0  0  0  0  0  0  0  0  0  0  0
   16.4370  -22.2650   -6.4320 C   0  0  0  0  0  0  0  0  0  0  0  0
   14.5070  -23.5750   -7.0800 O   0  0  0  0  0  0  0  0  0  0  0  0
   13.6460  -22.9750   -6.0860 C   0  0  0  0  0  0  0  0  0  0  0  0
   16.0720  -25.1320   -8.7140 O   0  0  0  0  0  0  0  0  0  0  0  0
   16.7040  -26.4360   -8.8790 C   0  0  0  0  0  0  0  0  0  0  0  0
   18.7890  -24.5550   -9.0220 O   0  0  0  0  0  0  0  0  0  0  0  0
   20.1120  -24.2630   -9.4940 C   0  0  0  0  0  0  0  0  0  0  0  0
   22.4340  -15.9010   -2.9920 H   0  0  0  0  0  0  0  0  0  0  0  0
   22.4540  -14.9690   -4.5310 H   0  0  0  0  0  0  0  0  0  0  0  0
   22.2570  -14.1190   -2.9660 H   0  0  0  0  0  0  0  0  0  0  0  0
   21.7110  -17.2500   -4.8220 H   0  0  0  0  0  0  0  0  0  0  0  0
   20.5430  -19.1560   -5.7260 H   0  0  0  0  0  0  0  0  0  0  0  0
   16.8000  -17.3030   -4.9010 H   0  0  0  0  0  0  0  0  0  0  0  0
   16.9030  -15.5190   -3.1710 H   0  0  0  0  0  0  0  0  0  0  0  0
   17.0500  -11.0840   -1.7000 H   0  0  0  0  0  0  0  0  0  0  0  0
   18.4070  -11.2220   -2.8530 H   0  0  0  0  0  0  0  0  0  0  0  0
   16.5570  -10.3930   -3.8800 H   0  0  0  0  0  0  0  0  0  0  0  0
   16.8830  -19.4420   -6.1230 H   0  0  0  0  0  0  0  0  0  0  0  0
   19.4120  -21.0020   -5.5440 H   0  0  0  0  0  0  0  0  0  0  0  0
   19.6240  -22.6020   -7.4480 H   0  0  0  0  0  0  0  0  0  0  0  0
   15.8520  -21.6960   -5.7650 H   0  0  0  0  0  0  0  0  0  0  0  0
   14.0980  -23.1250   -5.1080 H   0  0  0  0  0  0  0  0  0  0  0  0
   13.5700  -21.9130   -6.2880 H   0  0  0  0  0  0  0  0  0  0  0  0
   12.6670  -23.4490   -6.1450 H   0  0  0  0  0  0  0  0  0  0  0  0
   17.1980  -26.4540   -9.8500 H   0  0  0  0  0  0  0  0  0  0  0  0
   17.4210  -26.5840   -8.0720 H   0  0  0  0  0  0  0  0  0  0  0  0
   15.9350  -27.2050   -8.8300 H   0  0  0  0  0  0  0  0  0  0  0  0
   20.7620  -24.0710   -8.6420 H   0  0  0  0  0  0  0  0  0  0  0  0
   20.4630  -25.1300  -10.0520 H   0  0  0  0  0  0  0  0  0  0  0  0
   20.0360  -23.3990  -10.1470 H   0  0  0  0  0  0  0  0  0  0  0  0
   17.9310  -12.9310   -0.4460 H   0  0  0  0  0  0  0  0  0  0  0  0
  1  2  1  0  0  0  0
  1 33  1  0  0  0  0
  1 34  1  0  0  0  0
  1 35  1  0  0  0  0
  2  3  1  0  0  0  0
  3  4  1  0  0  0  0
  3  8  2  0  0  0  0
  4  5  2  0  0  0  0
  4 36  1  0  0  0  0
  5  6  1  0  0  0  0
  5 37  1  0  0  0  0
  6  7  2  0  0  0  0
  6 19  1  0  0  0  0
  7  8  1  0  0  0  0
  7 38  1  0  0  0  0
  8  9  1  0  0  0  0
  9 10  1  0  0  0  0
  9 39  1  0  0  0  0
 10 11  2  0  0  0  0
 10 12  1  0  0  0  0
 12 13  1  0  0  0  0
 12 14  1  0  0  0  0
 12 16  1  0  0  0  0
 14 15  1  0  0  0  0
 14 40  1  0  0  0  0
 14 41  1  0  0  0  0
 15 42  1  0  0  0  0
 16 17  1  0  0  0  0
 16 18  1  0  0  0  0
 16 56  1  0  0  0  0
 19 20  2  0  0  0  0
 19 43  1  0  0  0  0
 20 21  1  0  0  0  0
 20 44  1  0  0  0  0
 21 22  2  0  0  0  0
 21 26  1  0  0  0  0
 22 23  1  0  0  0  0
 22 45  1  0  0  0  0
 23 24  2  0  0  0  0
 23 31  1  0  0  0  0
 24 25  1  0  0  0  0
 24 29  1  0  0  0  0
 25 26  2  0  0  0  0
 25 27  1  0  0  0  0
 26 46  1  0  0  0  0
 27 28  1  0  0  0  0
 28 47  1  0  0  0  0
 28 48  1  0  0  0  0
 28 49  1  0  0  0  0
 29 30  1  0  0  0  0
 30 50  1  0  0  0  0
 30 51  1  0  0  0  0
 30 52  1  0  0  0  0
 31 32  1  0  0  0  0
 32 53  1  0  0  0  0
 32 54  1  0  0  0  0
 32 55  1  0  0  0  0
M  CHG  1  16   1
M  END
>  <Name>
DB12882

$$$$
DB13248
  MOE2022           3D
DB13248
 38 40  0  0  0  0  0  0  0  0999 V2000
   16.5110  -28.9210  -11.8940 C   0  0  0  0  0  0  0  0  0  0  0  0
   16.6100  -28.9860  -13.2720 C   0  0  0  0  0  0  0  0  0  0  0  0
   17.2300  -27.9460  -13.9650 C   0  0  0  0  0  0  0  0  0  0  0  0
   17.7690  -26.8040  -13.3150 C   0  0  0  0  0  0  0  0  0  0  0  0
   17.6370  -26.7250  -11.9130 C   0  0  0  0  0  0  0  0  0  0  0  0
   17.0150  -27.8040  -11.2300 C   0  0  0  0  0  0  0  0  0  0  0  0
   18.0110  -25.5970  -10.9870 C   0  0  0  0  0  0  0  0  0  0  0  0
   18.9600  -24.8920  -11.3370 O   0  0  0  0  0  0  0  0  0  0  0  0
   17.2400  -25.3620   -9.8720 N   0  0  0  0  0  0  0  0  0  0  0  0
   17.3560  -24.2990   -8.9530 C   0  0  0  0  0  0  0  0  0  0  0  0
   16.3400  -24.1470   -7.9970 C   0  0  0  0  0  0  0  0  0  0  0  0
   16.3700  -23.0820   -7.0940 C   0  0  0  0  0  0  0  0  0  0  0  0
   17.4240  -22.1700   -7.1410 C   0  0  0  0  0  0  0  0  0  0  0  0
   18.4560  -22.3210   -8.0660 C   0  0  0  0  0  0  0  0  0  0  0  0
   18.4150  -23.3880   -8.9640 C   0  0  0  0  0  0  0  0  0  0  0  0
   17.4820  -20.7790   -6.0440 S   0  0  0  0  0  0  0  0  0  0  0  0
   16.9530  -19.6360   -6.7740 O   0  0  0  0  0  0  0  0  0  0  0  0
   16.9410  -21.1910   -4.7820 O   0  0  0  0  0  0  0  0  0  0  0  0
   19.1640  -20.5570   -5.9180 N   0  0  0  0  0  0  0  0  0  0  0  0
   19.4330  -19.1850   -5.6930 C   0  0  0  0  0  0  0  0  0  0  0  0
   18.4820  -18.4280   -5.2060 N   0  0  0  0  0  0  0  0  0  0  0  0
   18.9440  -17.1290   -5.1170 C   0  0  0  0  0  0  0  0  0  0  0  0
   20.1890  -16.9050   -5.6660 C   0  0  0  0  0  0  0  0  0  0  0  0
   20.8670  -18.3970   -6.1760 S   0  0  0  0  0  0  0  0  0  0  0  0
   18.4350  -25.7810  -14.2030 C   0  0  0  0  0  0  0  0  0  0  0  0
   19.4780  -25.2060  -13.7620 O   0  0  0  0  0  0  0  0  0  0  0  0
   17.9510  -25.6180  -15.3670 O   0  5  0  0  0  0  0  0  0  0  0  0
   16.0350  -29.7190  -11.3340 H   0  0  0  0  0  0  0  0  0  0  0  0
   16.2090  -29.8360  -13.8160 H   0  0  0  0  0  0  0  0  0  0  0  0
   17.3000  -28.0120  -15.0520 H   0  0  0  0  0  0  0  0  0  0  0  0
   16.9110  -27.7680  -10.1460 H   0  0  0  0  0  0  0  0  0  0  0  0
   16.5610  -26.1020   -9.6320 H   0  0  0  0  0  0  0  0  0  0  0  0
   15.5190  -24.8620   -7.9580 H   0  0  0  0  0  0  0  0  0  0  0  0
   15.5660  -22.9730   -6.3650 H   0  0  0  0  0  0  0  0  0  0  0  0
   19.2860  -21.6230   -8.1080 H   0  0  0  0  0  0  0  0  0  0  0  0
   19.2410  -23.4880   -9.6580 H   0  0  0  0  0  0  0  0  0  0  0  0
   18.3140  -16.3710   -4.6680 H   0  0  0  0  0  0  0  0  0  0  0  0
   20.7220  -15.9720   -5.7770 H   0  0  0  0  0  0  0  0  0  0  0  0
  1  2  1  0  0  0  0
  1  6  2  0  0  0  0
  1 28  1  0  0  0  0
  2  3  2  0  0  0  0
  2 29  1  0  0  0  0
  3  4  1  0  0  0  0
  3 30  1  0  0  0  0
  4  5  2  0  0  0  0
  4 25  1  0  0  0  0
  5  6  1  0  0  0  0
  5  7  1  0  0  0  0
  6 31  1  0  0  0  0
  7  8  2  0  0  0  0
  7  9  1  0  0  0  0
  9 10  1  0  0  0  0
  9 32  1  0  0  0  0
 10 11  1  0  0  0  0
 10 15  2  0  0  0  0
 11 12  2  0  0  0  0
 11 33  1  0  0  0  0
 12 13  1  0  0  0  0
 12 34  1  0  0  0  0
 13 14  2  0  0  0  0
 13 16  1  0  0  0  0
 14 15  1  0  0  0  0
 14 35  1  0  0  0  0
 15 36  1  0  0  0  0
 16 17  2  0  0  0  0
 16 18  2  0  0  0  0
 16 19  1  0  0  0  0
 19 20  1  0  0  0  0
 20 21  2  0  0  0  0
 20 24  1  0  0  0  0
 21 22  1  0  0  0  0
 22 23  2  0  0  0  0
 22 37  1  0  0  0  0
 23 24  1  0  0  0  0
 23 38  1  0  0  0  0
 25 26  2  0  0  0  0
 25 27  1  0  0  0  0
M  CHG  1  27  -1
M  END
>  <Name>
DB13248

$$$$
DB13948
  MOE2022           3D
DB13948
 44 45  0  0  0  0  0  0  0  0999 V2000
   23.7280  -19.6270   -6.1660 C   0  0  0  0  0  0  0  0  0  0  0  0
   23.0610  -18.4100   -6.4830 O   0  0  0  0  0  0  0  0  0  0  0  0
   21.7320  -18.3040   -6.1720 C   0  0  0  0  0  0  0  0  0  0  0  0
   20.9480  -19.3600   -5.6960 C   0  0  0  0  0  0  0  0  0  0  0  0
   19.5800  -19.1840   -5.4170 C   0  0  0  0  0  0  0  0  0  0  0  0
   18.9970  -17.9210   -5.6060 C   0  0  0  0  0  0  0  0  0  0  0  0
   19.7770  -16.8600   -6.0670 C   0  0  0  0  0  0  0  0  0  0  0  0
   21.1380  -17.0480   -6.3550 C   0  0  0  0  0  0  0  0  0  0  0  0
   21.8970  -15.9240   -6.8440 C   0  0  0  0  0  0  0  0  0  0  0  0
   22.4470  -14.9940   -7.2440 N   0  0  0  0  0  0  0  0  0  0  0  0
   17.6720  -17.8160   -5.2820 O   0  0  0  0  0  0  0  0  0  0  0  0
   17.2560  -16.5890   -4.6840 C   0  0  0  0  0  0  0  0  0  0  0  0
   18.7750  -20.3650   -4.9140 C   0  0  0  0  0  0  0  0  0  0  0  0
   17.6570  -20.8210   -5.8630 C   0  0  0  0  0  0  0  0  0  0  0  0
   18.1470  -21.7870   -6.8960 N   0  3  0  0  0  0  0  0  0  0  0  0
   18.7640  -21.2910   -7.5060 H   0  0  0  0  0  0  0  0  0  0  0  0
   17.1120  -22.4480   -7.7410 C   0  0  0  0  0  0  0  0  0  0  0  0
   17.5830  -23.6310   -8.5420 C   0  0  0  0  0  0  0  0  0  0  0  0
   18.8420  -23.5580   -9.1660 C   0  0  0  0  0  0  0  0  0  0  0  0
   19.2940  -24.5850   -9.9980 C   0  0  0  0  0  0  0  0  0  0  0  0
   18.4980  -25.7060  -10.2150 C   0  0  0  0  0  0  0  0  0  0  0  0
   17.2420  -25.7930   -9.6160 C   0  0  0  0  0  0  0  0  0  0  0  0
   16.7840  -24.7500   -8.8080 C   0  0  0  0  0  0  0  0  0  0  0  0
   15.5190  -24.8000   -8.2830 O   0  0  0  0  0  0  0  0  0  0  0  0
   24.7730  -19.5320   -6.4750 H   0  0  0  0  0  0  0  0  0  0  0  0
   23.2910  -20.4660   -6.7180 H   0  0  0  0  0  0  0  0  0  0  0  0
   23.7130  -19.8160   -5.0870 H   0  0  0  0  0  0  0  0  0  0  0  0
   21.3930  -20.3360   -5.5270 H   0  0  0  0  0  0  0  0  0  0  0  0
   19.3550  -15.8650   -6.1940 H   0  0  0  0  0  0  0  0  0  0  0  0
   16.1620  -16.5830   -4.6740 H   0  0  0  0  0  0  0  0  0  0  0  0
   17.5880  -15.7340   -5.2820 H   0  0  0  0  0  0  0  0  0  0  0  0
   17.6020  -16.5100   -3.6500 H   0  0  0  0  0  0  0  0  0  0  0  0
   18.3550  -20.1150   -3.9320 H   0  0  0  0  0  0  0  0  0  0  0  0
   19.4430  -21.2150   -4.7250 H   0  0  0  0  0  0  0  0  0  0  0  0
   17.2060  -19.9910   -6.4140 H   0  0  0  0  0  0  0  0  0  0  0  0
   16.8550  -21.3200   -5.3080 H   0  0  0  0  0  0  0  0  0  0  0  0
   16.7190  -21.6670   -8.4000 H   0  0  0  0  0  0  0  0  0  0  0  0
   16.3160  -22.7960   -7.0780 H   0  0  0  0  0  0  0  0  0  0  0  0
   19.4860  -22.6890   -9.0310 H   0  0  0  0  0  0  0  0  0  0  0  0
   20.2650  -24.5090  -10.4850 H   0  0  0  0  0  0  0  0  0  0  0  0
   18.8520  -26.5040  -10.8650 H   0  0  0  0  0  0  0  0  0  0  0  0
   16.6380  -26.6770   -9.8060 H   0  0  0  0  0  0  0  0  0  0  0  0
   15.0000  -25.4110   -8.8460 H   0  0  0  0  0  0  0  0  0  0  0  0
   18.6540  -22.5060   -6.4210 H   0  0  0  0  0  0  0  0  0  0  0  0
  1  2  1  0  0  0  0
  1 25  1  0  0  0  0
  1 26  1  0  0  0  0
  1 27  1  0  0  0  0
  2  3  1  0  0  0  0
  3  4  1  0  0  0  0
  3  8  2  0  0  0  0
  4  5  2  0  0  0  0
  4 28  1  0  0  0  0
  5  6  1  0  0  0  0
  5 13  1  0  0  0  0
  6  7  2  0  0  0  0
  6 11  1  0  0  0  0
  7  8  1  0  0  0  0
  7 29  1  0  0  0  0
  8  9  1  0  0  0  0
  9 10  3  0  0  0  0
 11 12  1  0  0  0  0
 12 30  1  0  0  0  0
 12 31  1  0  0  0  0
 12 32  1  0  0  0  0
 13 14  1  0  0  0  0
 13 33  1  0  0  0  0
 13 34  1  0  0  0  0
 14 15  1  0  0  0  0
 14 35  1  0  0  0  0
 14 36  1  0  0  0  0
 15 16  1  0  0  0  0
 15 17  1  0  0  0  0
 15 44  1  0  0  0  0
 17 18  1  0  0  0  0
 17 37  1  0  0  0  0
 17 38  1  0  0  0  0
 18 19  1  0  0  0  0
 18 23  2  0  0  0  0
 19 20  2  0  0  0  0
 19 39  1  0  0  0  0
 20 21  1  0  0  0  0
 20 40  1  0  0  0  0
 21 22  2  0  0  0  0
 21 41  1  0  0  0  0
 22 23  1  0  0  0  0
 22 42  1  0  0  0  0
 23 24  1  0  0  0  0
 24 43  1  0  0  0  0
M  CHG  1  15   1
M  END
>  <Name>
DB13948

$$$$
DB16236
  MOE2022           3D
DB16236
 58 62  0  0  0  0  0  0  0  0999 V2000
   16.7990  -26.6590   -9.1530 C   0  0  0  0  0  0  0  0  0  0  0  0
   18.0450  -27.0680   -9.5400 C   0  0  0  0  0  0  0  0  0  0  0  0
   19.1410  -26.1870   -9.4320 C   0  0  0  0  0  0  0  0  0  0  0  0
   20.4390  -26.6040   -9.7970 C   0  0  0  0  0  0  0  0  0  0  0  0
   21.4700  -25.7210   -9.6650 C   0  0  0  0  0  0  0  0  0  0  0  0
   21.2120  -24.4210   -9.1890 C   0  0  0  0  0  0  0  0  0  0  0  0
   20.0200  -24.0110   -8.8480 N   0  0  0  0  0  0  0  0  0  0  0  0
   18.9470  -24.8700   -8.9320 C   0  0  0  0  0  0  0  0  0  0  0  0
   17.6490  -24.4670   -8.5060 C   0  0  0  0  0  0  0  0  0  0  0  0
   16.6050  -25.3610   -8.6460 C   0  0  0  0  0  0  0  0  0  0  0  0
   17.2640  -22.8440   -7.7900 S   0  0  0  0  0  0  0  0  0  0  0  0
   17.2900  -21.8850   -8.8370 O   0  0  0  0  0  0  0  0  0  0  0  0
   16.0190  -22.9660   -7.1100 O   0  0  0  0  0  0  0  0  0  0  0  0
   18.4600  -22.4640   -6.6360 N   0  0  0  0  0  0  0  0  0  0  0  0
   18.5440  -21.1810   -6.0330 C   0  0  0  0  0  0  0  0  0  0  0  0
   19.7780  -20.6490   -5.6260 C   0  0  0  0  0  0  0  0  0  0  0  0
   19.8720  -19.3070   -5.2650 C   0  0  0  0  0  0  0  0  0  0  0  0
   18.7460  -18.4640   -5.3100 C   0  0  0  0  0  0  0  0  0  0  0  0
   17.5110  -19.0400   -5.6300 C   0  0  0  0  0  0  0  0  0  0  0  0
   17.4100  -20.3830   -5.9490 C   0  0  0  0  0  0  0  0  0  0  0  0
   18.7840  -17.0370   -4.9780 C   0  0  0  0  0  0  0  0  0  0  0  0
   17.8200  -16.4960   -4.4320 O   0  0  0  0  0  0  0  0  0  0  0  0
   19.8820  -16.2250   -5.2630 N   0  0  0  0  0  0  0  0  0  0  0  0
   20.0090  -14.8790   -4.6580 C   0  0  0  0  0  0  0  0  0  0  0  0
   19.7310  -13.8740   -5.7940 C   0  0  0  0  0  0  0  0  0  0  0  0
   20.8030  -14.0720   -6.7890 N   0  3  0  0  0  0  0  0  0  0  0  0
   20.6080  -15.3920   -7.4220 C   0  0  0  0  0  0  0  0  0  0  0  0
   20.8370  -16.4930   -6.3600 C   0  0  0  0  0  0  0  0  0  0  0  0
   20.7430  -12.9980   -7.8160 C   0  0  0  0  0  0  0  0  0  0  0  0
   19.4310  -13.0510   -8.6370 C   0  0  0  0  0  0  0  0  0  0  0  0
   18.2920  -12.2020   -8.1570 C   0  0  0  0  0  0  0  0  0  0  0  0
   19.1030  -11.7760   -9.3550 C   0  0  0  0  0  0  0  0  0  0  0  0
   15.9790  -27.3240   -9.2230 H   0  0  0  0  0  0  0  0  0  0  0  0
   18.1930  -28.0480   -9.9140 H   0  0  0  0  0  0  0  0  0  0  0  0
   20.6040  -27.5880  -10.1550 H   0  0  0  0  0  0  0  0  0  0  0  0
   22.4610  -26.0000   -9.9130 H   0  0  0  0  0  0  0  0  0  0  0  0
   22.0250  -23.7580   -9.0940 H   0  0  0  0  0  0  0  0  0  0  0  0
   15.6280  -25.0770   -8.3540 H   0  0  0  0  0  0  0  0  0  0  0  0
   20.6480  -21.2450   -5.6480 H   0  0  0  0  0  0  0  0  0  0  0  0
   20.8090  -18.9170   -4.9610 H   0  0  0  0  0  0  0  0  0  0  0  0
   16.6340  -18.4460   -5.6140 H   0  0  0  0  0  0  0  0  0  0  0  0
   16.4710  -20.8140   -6.1150 H   0  0  0  0  0  0  0  0  0  0  0  0
   19.2820  -14.7280   -3.8720 H   0  0  0  0  0  0  0  0  0  0  0  0
   21.0190  -14.7420   -4.2950 H   0  0  0  0  0  0  0  0  0  0  0  0
   18.7670  -14.0940   -6.2350 H   0  0  0  0  0  0  0  0  0  0  0  0
   19.7930  -12.8710   -5.3920 H   0  0  0  0  0  0  0  0  0  0  0  0
   19.5840  -15.4640   -7.7610 H   0  0  0  0  0  0  0  0  0  0  0  0
   21.3270  -15.5250   -8.2190 H   0  0  0  0  0  0  0  0  0  0  0  0
   21.8480  -16.4260   -5.9830 H   0  0  0  0  0  0  0  0  0  0  0  0
   20.6340  -17.4420   -6.8330 H   0  0  0  0  0  0  0  0  0  0  0  0
   20.7940  -12.0390   -7.3180 H   0  0  0  0  0  0  0  0  0  0  0  0
   21.5660  -13.1370   -8.5040 H   0  0  0  0  0  0  0  0  0  0  0  0
   19.2200  -13.9680   -9.1690 H   0  0  0  0  0  0  0  0  0  0  0  0
   17.2950  -12.5640   -8.3670 H   0  0  0  0  0  0  0  0  0  0  0  0
   18.4390  -11.6250   -7.2540 H   0  0  0  0  0  0  0  0  0  0  0  0
   19.7650  -10.9330   -9.2090 H   0  0  0  0  0  0  0  0  0  0  0  0
   18.6110  -11.8670  -10.3140 H   0  0  0  0  0  0  0  0  0  0  0  0
   21.7000  -14.0470   -6.3250 H   0  0  0  0  0  0  0  0  0  0  0  0
  1  2  1  0  0  0  0
  1 10  2  0  0  0  0
  1 33  1  0  0  0  0
  2  3  2  0  0  0  0
  2 34  1  0  0  0  0
  3  4  1  0  0  0  0
  3  8  1  0  0  0  0
  4  5  2  0  0  0  0
  4 35  1  0  0  0  0
  5  6  1  0  0  0  0
  5 36  1  0  0  0  0
  6  7  2  0  0  0  0
  6 37  1  0  0  0  0
  7  8  1  0  0  0  0
  8  9  2  0  0  0  0
  9 10  1  0  0  0  0
  9 11  1  0  0  0  0
 10 38  1  0  0  0  0
 11 12  2  0  0  0  0
 11 13  2  0  0  0  0
 11 14  1  0  0  0  0
 14 15  1  0  0  0  0
 15 16  1  0  0  0  0
 15 20  2  0  0  0  0
 16 17  2  0  0  0  0
 16 39  1  0  0  0  0
 17 18  1  0  0  0  0
 17 40  1  0  0  0  0
 18 19  2  0  0  0  0
 18 21  1  0  0  0  0
 19 20  1  0  0  0  0
 19 41  1  0  0  0  0
 20 42  1  0  0  0  0
 21 22  2  0  0  0  0
 21 23  1  0  0  0  0
 23 24  1  0  0  0  0
 23 28  1  0  0  0  0
 24 25  1  0  0  0  0
 24 43  1  0  0  0  0
 24 44  1  0  0  0  0
 25 26  1  0  0  0  0
 25 45  1  0  0  0  0
 25 46  1  0  0  0  0
 26 27  1  0  0  0  0
 26 29  1  0  0  0  0
 26 58  1  0  0  0  0
 27 28  1  0  0  0  0
 27 47  1  0  0  0  0
 27 48  1  0  0  0  0
 28 49  1  0  0  0  0
 28 50  1  0  0  0  0
 29 30  1  0  0  0  0
 29 51  1  0  0  0  0
 29 52  1  0  0  0  0
 30 31  1  0  0  0  0
 30 32  1  0  0  0  0
 30 53  1  0  0  0  0
 31 32  1  0  0  0  0
 31 54  1  0  0  0  0
 31 55  1  0  0  0  0
 32 56  1  0  0  0  0
 32 57  1  0  0  0  0
M  CHG  1  26   1
M  END
>  <Name>
DB16236

$$$$
